Version 4
SHEET 1 880 680
WIRE 176 -80 48 -80
WIRE 224 -80 176 -80
WIRE 288 -80 224 -80
WIRE 704 -80 288 -80
WIRE 48 -32 48 -80
WIRE 384 96 128 96
WIRE 608 112 448 112
WIRE 640 112 608 112
WIRE 704 112 704 -16
WIRE 288 128 288 -80
WIRE 384 128 288 128
WIRE 288 144 288 128
WIRE 128 288 128 96
WIRE 384 288 128 288
WIRE 496 304 448 304
WIRE 640 304 496 304
WIRE 704 304 704 112
WIRE 176 320 176 -80
WIRE 384 320 176 320
WIRE 48 352 48 48
WIRE 176 352 176 320
WIRE 496 368 496 304
WIRE 608 368 608 112
WIRE 704 368 704 304
WIRE 48 544 48 432
WIRE 128 544 48 544
WIRE 176 544 176 432
WIRE 176 544 128 544
WIRE 288 544 288 224
WIRE 288 544 176 544
WIRE 496 544 496 512
WIRE 496 544 288 544
WIRE 608 544 608 512
WIRE 608 544 496 544
WIRE 704 544 704 448
WIRE 704 544 608 544
FLAG -48 -96 0
FLAG -48 -176 VCC
FLAG 416 80 VCC
FLAG 416 272 VCC
FLAG 416 144 0
FLAG 128 544 0
FLAG 224 -80 VCC
SYMBOL voltage -48 -192 R0
WINDOW 123 0 0 Left 0
WINDOW 39 0 0 Left 0
SYMATTR InstName V1
SYMATTR Value 5
SYMBOL res 160 336 R0
SYMATTR InstName R1
SYMATTR Value 220k
SYMBOL res 272 128 R0
SYMATTR InstName R2
SYMATTR Value 22k
SYMBOL LED 688 -80 R0
SYMATTR InstName D3
SYMBOL LED 480 448 R0
SYMATTR InstName D2
SYMBOL res 688 352 R0
SYMATTR InstName R3
SYMATTR Value 680
SYMBOL res 592 352 R0
SYMATTR InstName R4
SYMATTR Value 680
SYMBOL res 480 352 R0
SYMATTR InstName R5
SYMATTR Value 680
SYMBOL LED 592 448 R0
SYMATTR InstName D1
SYMBOL diode 640 128 R270
WINDOW 0 32 32 VTop 2
WINDOW 3 0 32 VBottom 2
SYMATTR InstName D4
SYMBOL diode 640 320 R270
WINDOW 0 32 32 VTop 2
WINDOW 3 0 32 VBottom 2
SYMATTR InstName D5
SYMBOL res 32 336 R0
SYMATTR InstName R6
SYMATTR Value 10k
SYMBOL res 32 -48 R0
SYMATTR InstName R7
SYMATTR Value {R}
SYMBOL Opamps\\LT1006 416 240 R0
SYMATTR InstName U3
SYMBOL Opamps\\LT1006 416 176 M180
SYMATTR InstName U4
TEXT 40 600 Left 2 !.op
