Version 4
SHEET 1 880 680
WIRE 592 -256 592 -272
WIRE 592 -256 400 -256
WIRE 592 -240 592 -256
WIRE 400 -176 400 -256
WIRE 400 -64 400 -96
WIRE 464 -64 400 -64
WIRE 624 -64 544 -64
WIRE 768 -64 704 -64
WIRE 400 -48 400 -64
WIRE 592 32 592 0
WIRE 544 48 544 -64
WIRE 560 48 544 48
WIRE 768 64 768 -64
WIRE 768 64 624 64
WIRE 560 80 32 80
WIRE 592 112 592 96
WIRE 32 160 32 80
WIRE 768 160 768 144
FLAG 592 -160 0
FLAG 32 240 0
FLAG 592 0 vcc
FLAG 592 112 0
FLAG 592 -272 vcc
FLAG 768 160 0
FLAG 400 32 0
SYMBOL voltage 32 144 R0
WINDOW 123 0 0 Left 2
WINDOW 39 0 0 Left 2
SYMATTR InstName V1
SYMATTR Value {Vin}
SYMBOL voltage 592 -256 R0
WINDOW 123 0 0 Left 2
WINDOW 39 0 0 Left 2
SYMATTR InstName V2
SYMATTR Value 12
SYMBOL res 720 -80 R90
WINDOW 0 0 56 VBottom 2
WINDOW 3 32 56 VTop 2
SYMATTR InstName Rf
SYMATTR Value 172k
SYMBOL res 560 -80 R90
WINDOW 0 0 56 VBottom 2
WINDOW 3 32 56 VTop 2
SYMATTR InstName Rg
SYMATTR Value 100k
SYMBOL res 416 48 R180
WINDOW 0 36 76 Left 2
WINDOW 3 36 40 Left 2
SYMATTR InstName R2
SYMATTR Value 1k
SYMBOL res 416 -80 R180
WINDOW 0 36 76 Left 2
WINDOW 3 36 40 Left 2
SYMATTR InstName R1
SYMATTR Value 15k
SYMBOL Opamps\\LT1006 592 0 R0
SYMATTR InstName U1
SYMBOL res 752 48 R0
SYMATTR InstName R3
SYMATTR Value 10k
TEXT -64 320 Left 2 !.step param Vin 0.5 4.5 0.05
TEXT -64 344 Left 2 !.op 100m
