Version 4
SHEET 1 920 680
WIRE 176 -80 48 -80
WIRE 224 -80 176 -80
WIRE 288 -80 224 -80
WIRE 768 -80 288 -80
WIRE 48 -32 48 -80
WIRE 176 -32 176 -80
WIRE 288 -32 288 -80
WIRE 768 16 768 -16
WIRE 384 48 368 48
WIRE 384 80 384 48
WIRE 352 96 128 96
WIRE 640 112 416 112
WIRE 672 112 640 112
WIRE 768 112 768 80
WIRE 768 112 736 112
WIRE 288 128 288 48
WIRE 352 128 288 128
WIRE 48 160 48 48
WIRE 128 160 128 96
WIRE 128 160 48 160
WIRE 384 208 384 144
WIRE 384 272 384 208
WIRE 128 288 128 160
WIRE 352 288 128 288
WIRE 512 304 416 304
WIRE 672 304 512 304
WIRE 768 304 768 112
WIRE 768 304 736 304
WIRE 176 320 176 48
WIRE 352 320 176 320
WIRE 48 352 48 160
WIRE 512 352 512 304
WIRE 640 352 640 112
WIRE 768 352 768 304
WIRE 176 416 176 320
WIRE 288 416 288 128
WIRE 512 448 512 432
WIRE 640 448 640 432
WIRE 48 544 48 432
WIRE 176 544 176 496
WIRE 176 544 48 544
WIRE 288 544 288 496
WIRE 288 544 176 544
WIRE 512 544 512 512
WIRE 512 544 288 544
WIRE 640 544 640 512
WIRE 640 544 512 544
WIRE 768 544 768 432
WIRE 768 544 640 544
WIRE 176 576 176 544
FLAG -48 -96 0
FLAG -48 -176 VCC
FLAG 384 208 VCC
FLAG 224 -80 VCC
FLAG 384 336 0
FLAG 176 576 0
FLAG 368 48 0
SYMBOL voltage -48 -192 R0
WINDOW 123 0 0 Left 2
WINDOW 39 0 0 Left 2
SYMATTR InstName V1
SYMATTR Value 5
SYMBOL res 160 400 R0
SYMATTR InstName R1
SYMATTR Value 2k
SYMBOL res 272 400 R0
SYMATTR InstName R2
SYMATTR Value 6k
SYMBOL LED 752 -80 R0
SYMATTR InstName D3
SYMATTR Value NSSWS108T
SYMBOL res 752 336 R0
SYMATTR InstName R3
SYMATTR Value 470
SYMBOL res 624 336 R0
SYMATTR InstName R4
SYMATTR Value 330
SYMBOL res 496 336 R0
SYMATTR InstName R5
SYMATTR Value 330
SYMBOL diode 672 128 R270
WINDOW 0 32 32 VTop 2
WINDOW 3 0 32 VBottom 2
SYMATTR InstName D4
SYMATTR Value 1N4148
SYMBOL diode 672 320 R270
WINDOW 0 32 32 VTop 2
WINDOW 3 0 32 VBottom 2
SYMATTR InstName D5
SYMATTR Value 1N4148
SYMBOL res 32 336 R0
SYMATTR InstName R6
SYMATTR Value 10k
SYMBOL res 32 -48 R0
SYMATTR InstName R7
SYMATTR Value {R}
SYMBOL Opamps\\LT1006 384 240 R0
SYMATTR InstName U3
SYMBOL Opamps\\LT1006 384 176 M180
SYMATTR InstName U4
SYMBOL res 160 -48 R0
SYMATTR InstName R8
SYMATTR Value 8k
SYMBOL res 272 -48 R0
SYMATTR InstName R9
SYMATTR Value 4k
SYMBOL diode 752 16 R0
SYMATTR InstName D6
SYMATTR Value 1N4148
SYMBOL LED 496 448 R0
SYMATTR InstName D1
SYMATTR Value NSSWS108T
SYMBOL LED 624 448 R0
SYMATTR InstName D2
SYMATTR Value NSSWS108T
TEXT 40 600 Left 2 !.op
TEXT 48 624 Left 2 !.step dec param R 1k 1.3Meg 10
TEXT -32 16 Left 2 ;LDR
TEXT 144 -208 Left 2 ;R1 & R8 : 10k pot, 1V threshold
TEXT 144 -184 Left 2 ;R2 & R9 : 10k pot, 3V threshold
TEXT 144 -160 Left 2 ;D6 added due to Vsat+ of LM324 : Vsat+=Vcc-1.5V
RECTANGLE Normal 128 64 -48 -48 2
